Circuit: * C:\Users\Chris\SYNCMAIN\DESIGN\Thesis\BatteryResearch\powersimulation\simulation.asc

WARNING: Less than two connections to node N002.  This node is used by R5.
WARNING: Less than two connections to node N012.  This node is used by V5.
WARNING: Less than two connections to node N013.  This node is used by V6.
WARNING: Less than two connections to node N015.  This node is used by V7.
WARNING: Less than two connections to node N001.  This node is used by R6.
WARNING: Less than two connections to node N004.  This node is used by R7.
WARNING: Less than two connections to node N014.  This node is used by V10.
Direct Newton iteration for .op point succeeded.

Date: Wed Jun 28 13:45:27 2023
Total elapsed time: 0.173 seconds.

tnom = 27
temp = 27
method = modified trap
totiter = 36969
traniter = 36965
tranpoints = 14582
accept = 11589
rejected = 2993
matrix size = 30
fillins = 0
solver = Normal
Matrix Compiler1: 662 bytes object code size  0.1/0.1/[0.1]
Matrix Compiler2: 1.54 KB object code size  0.1/0.2/[0.1]

